ipss.test.plugin.core/testData/psse/V32/aeso/2013_SPP.raw
0,   100.00, 33, 0, 1, 60.00     / PSS(R)E-33.4    THU, JUN 27 2013   0:31
TASMO MODEL; OUTPUT GENERATED 2012-09-17 17:52:35
SWINGBUS 1520 FOR 2012LPBL-1:2013-03-01:1:823--1-0-0-0
     1,'JUDY515S    ',  69.0000,1,  26,  99,  17,1.06394, -21.6284,1.10000,0.90000,1.10000,0.90000
     2,'MAYERTH     ', 138.0000,1,  40,  99,  17,1.03147, -19.5013,1.10000,0.90000,1.10000,0.90000
     3,'COLINTO7    ', 138.0000,1,  27,  99,  17,1.00732, -21.9955,1.10000,0.90000,1.10000,0.90000
     4,'WESTLOC7    ', 138.0000,1,  27,  99,  17,1.01838, -19.8348,1.10000,0.90000,1.10000,0.90000
     5,'CLYDE  7    ', 138.0000,1,  27,  99,  17,1.01192, -20.4468,1.10000,0.90000,1.10000,0.90000
     6,'DICKSOA9    ',   4.1600,1,  39,  99,   7,1.03286, -24.2754,1.10000,0.90000,1.10000,0.90000
     7,'BOYLE  7    ', 138.0000,1,  27,  99,  17,1.01159, -22.3950,1.10000,0.90000,1.10000,0.90000
     8,'WHI 3647    ', 138.0000,1,  26,  99,  17,1.04152, -19.9093,1.10000,0.90000,1.10000,0.90000
     9,'WHITECO7    ', 138.0000,1,  26,  99,  17,1.04085, -20.2150,1.10000,0.90000,1.10000,0.90000
    10,'WHITECO8    ',  69.0000,1,  26,  99,  17,1.06538, -19.3490,1.10000,0.90000,1.10000,0.90000
    12,'FOX CREE    ', 138.0000,1,  24,  99,  17,1.03980, -21.7731,1.10000,0.90000,1.10000,0.90000
    13,'KAYBOB 7    ', 138.0000,1,  24,  99,  17,1.02615, -21.5633,1.10000,0.90000,1.10000,0.90000
    14,'WESGEN 9    ',  13.8000,2,  27,  99,   4,1.02500, -16.6292,1.10000,0.90000,1.10000,0.90000
    15,'MTN COA7    ', 138.0000,1,  29,  99,  17,1.04427, -20.2730,1.10000,0.90000,1.10000,0.90000
    16,'FLATBUS7    ', 138.0000,1,  27,  99,  17,1.02332, -19.3716,1.10000,0.90000,1.10000,0.90000
    17,'COLD CR7    ', 138.0000,1,  29,  99,  17,1.04892, -20.7502,1.10000,0.90000,1.10000,0.90000
    18,'GULF RO7    ', 138.0000,1,  29,  99,  17,1.03095, -19.4080,1.10000,0.90000,1.10000,0.90000
    19,'WESGEN T    ', 138.0000,1,  27,  99,  17,1.02502, -19.2579,1.10000,0.90000,1.10000,0.90000
    20,'EDSON  7    ', 138.0000,1,  29,  99,  17,1.03937, -19.0311,1.10000,0.90000,1.10000,0.90000
    21,'WESGEN 7    ', 138.0000,1,  27,  99,   4,1.02706, -18.9543,1.10000,0.90000,1.10000,0.90000
    26,'ENTWIST7    ', 138.0000,1,  40,  99,  17,1.02181, -18.8525,1.10000,0.90000,1.10000,0.90000
    27,'WABAMUN8    ',  69.0000,1,  40,  99,  17,1.02362, -16.8767,1.10000,0.90000,1.10000,0.90000
    31,'FINCAST7    ', 138.0000,1,  52,  99,  17,1.01183, -18.4951,1.10000,0.90000,1.10000,0.90000
    32,'ONOWAY 8    ',  69.0000,1,  40,  99,  17,1.02420, -16.9057,1.10000,0.90000,1.10000,0.90000
    33,'BRAZEAA9    ',  13.2000,2,  30,  99,  17,1.02326, -20.9633,1.10000,0.90000,1.10000,0.90000
    35,'LODGEPO7    ', 138.0000,1,  30,  99,  17,1.01828, -20.0182,1.10000,0.90000,1.10000,0.90000
    36,'BRAZEAU7    ', 138.0000,1,  30,  99,  17,1.03317, -19.5761,1.10000,0.90000,1.10000,0.90000
    37,'HRT EXP7    ', 138.0000,1,  32,  99,  25,1.03130, -18.6884,1.10000,0.90000,1.10000,0.90000
    38,'BRAZ OUT    ', 138.0000,1,  30,  99,  17,1.03087, -20.2464,1.10000,0.90000,1.10000,0.90000
    39,'CYNTHIA7    ', 138.0000,1,  30,  99,  17,1.02708, -20.8958,1.10000,0.90000,1.10000,0.90000
    40,'N CALDE7    ', 138.0000,1,  60,  99,  17,1.00818, -19.8517,1.10000,0.90000,1.10000,0.90000
    41,'N BARRH7    ', 138.0000,1,  40,  99,  17,1.03746, -18.4150,1.10000,0.90000,1.10000,0.90000
    42,'AMOCO BR    ', 138.0000,1,  30,  99,  17,1.03153, -21.3046,1.10000,0.90000,1.10000,0.90000
    43,'SCOTF_4     ', 138.0000,2,  33,  99,  29,1.03000, -19.0979,1.10000,0.90000,1.10000,0.90000
    44,'FT ASBN7    ', 138.0000,1,  40,  99,  17,1.04853, -19.7799,1.10000,0.90000,1.10000,0.90000
    47,'SHERWOO7    ', 138.0000,1,  60,  99,  17,1.02004, -19.9024,1.10000,0.90000,1.10000,0.90000
    48,'DIAM SH7    ', 138.0000,1,  33,  99,  17,1.03016, -19.0520,1.10000,0.90000,1.10000,0.90000
    49,'KEYSTON7    ', 138.0000,1,  30,  99,  17,1.01908, -16.0231,1.10000,0.90000,1.10000,0.90000
    50,'RIVERSID    ', 138.0000,2,  33,  99, 211,1.02872, -19.2457,1.10000,0.90000,1.10000,0.90000
    51,'W PEMBI7    ', 138.0000,1,  30,  99,  17,1.02897, -21.3088,1.10000,0.90000,1.10000,0.90000
    52,'BLUERIDG    ', 138.0000,1,  26,  99,  17,1.03607, -20.0095,1.10000,0.90000,1.10000,0.90000
    53,'SANDYPT7    ', 138.0000,1,  48,  99,  17,1.03905, -15.7770,1.10000,0.90000,1.10000,0.90000
    55,'GULF OI7    ', 138.0000,1,  60,  99,  17,1.02572, -19.7755,1.10000,0.90000,1.10000,0.90000
    56,'IPPL ED7    ', 138.0000,1,  60,  99,  17,1.02654, -19.7414,1.10000,0.90000,1.10000,0.90000
    57,'LAMOURE4    ', 240.0000,1,  33,  99,  17,1.03303, -18.0393,1.10000,0.90000,1.10000,0.90000
    58,'FORT SA7    ', 138.0000,1,  60,  99,  17,1.02768, -19.1430,1.10000,0.90000,1.10000,0.90000
    59,'REDWATE7    ', 138.0000,1,  33,  99,  17,1.02032, -19.6089,1.10000,0.90000,1.10000,0.90000
    60,'BEAMER 7    ', 138.0000,1,  33,  99,  17,1.02574, -19.3378,1.10000,0.90000,1.10000,0.90000
    61,'UN CARB9    ', 138.0000,2,  33,  99, 191,1.03000, -18.9126,1.10000,0.90000,1.10000,0.90000
    62,'SHERRIT7    ', 138.0000,1,  33,  99,  17,1.02862, -19.1187,1.10000,0.90000,1.10000,0.90000
    63,'LAMOURE7    ', 138.0000,1,  33,  99,  17,1.03187, -18.9696,1.10000,0.90000,1.10000,0.90000
    64,'BANFF  7    ', 138.0000,1,  44,  99,  17,1.01959, -25.2085,1.10000,0.90000,1.10000,0.90000
    65,'BARDO  7    ', 138.0000,1,  31,  99,  17,1.00425, -19.6695,1.10000,0.90000,1.10000,0.90000
    66,'IOL 737L    ', 138.0000,1,  60,  99,  17,1.02502, -19.8136,1.10000,0.90000,1.10000,0.90000
    67,'BRUDERH7    ', 138.0000,1,  33,  99,  17,1.03064, -19.1695,1.10000,0.90000,1.10000,0.90000
    68,'N HOLDE7    ', 138.0000,1,  56,  99,  17,1.01215, -17.3783,1.10000,0.90000,1.10000,0.90000
    69,'IOL 738L    ', 138.0000,1,  60,  99,  17,1.02020, -20.1153,1.10000,0.90000,1.10000,0.90000
    70,'CAMROSE7    ', 138.0000,1,  31,  99,  17,0.99411, -21.0388,1.10000,0.90000,1.10000,0.90000
    71,'JARROW 8    ',  69.0000,1,  32,  99,  17,1.03850, -17.6615,1.10000,0.90000,1.10000,0.90000
    72,'JARROW 7    ', 138.0000,1,  32,  99,  17,1.02058, -17.6408,1.10000,0.90000,1.10000,0.90000
    73,'HARDIST7    ', 138.0000,1,  32,  99,  17,1.03148, -18.7240,1.10000,0.90000,1.10000,0.90000
    74,'METIS647    ', 138.0000,1,  37,  99,  17,1.03549, -16.1042,1.10000,0.90000,1.10000,0.90000
    75,'HUGHEND7    ', 138.0000,1,  37,  99,  17,1.02888, -17.6106,1.10000,0.90000,1.10000,0.90000
    76,'IPPL ST7    ', 138.0000,1,  56,  99,  17,1.04688, -10.4279,1.10000,0.90000,1.10000,0.90000
    77,'WAINWRI8    ',  69.0000,1,  32,  99,  17,1.03981, -17.7718,1.10000,0.90000,1.10000,0.90000
    78,'SEDGEWI7    ', 138.0000,1,  32,  99,  17,1.03064, -14.5564,1.10000,0.90000,1.10000,0.90000
    79,'BUFFALO7    ', 138.0000,1,  32,  99,  17,1.01348, -20.4692,1.10000,0.90000,1.10000,0.90000
    80,'BUCKLAK7    ', 138.0000,1,  30,  99,  17,1.00990, -18.7681,1.10000,0.90000,1.10000,0.90000
    81,'BIGSTON4    ', 240.0000,1,  31,  99,  17,1.02126, -17.2615,1.10000,0.90000,1.10000,0.90000
    82,'CHEVRON7    ', 138.0000,1,  24,  99,  17,1.02589, -21.5725,1.10000,0.90000,1.10000,0.90000
    83,'RBCUPIL7    ', 138.0000,1,  17,  99,  21,1.08630, -21.3051,1.10000,0.90000,1.10000,0.90000
    85,'MILLAR 7    ', 138.0000,1,  26,  99,  17,1.02806, -20.2213,1.10000,0.90000,1.10000,0.90000
    86,'PROVOST7    ', 138.0000,1,  37,  99,  17,1.02493, -16.5208,1.10000,0.90000,1.10000,0.90000
    87,'METIS644    ', 240.0000,1,  37,  99,  17,1.05998, -12.7668,1.10000,0.90000,1.10000,0.90000
    88,'BICKERD7    ', 138.0000,1,  29,  99,  17,1.04157, -18.4398,1.10000,0.90000,1.10000,0.90000
    89,'E EDMON7    ', 138.0000,1,  60,  99,  17,1.02725, -19.7041,1.10000,0.90000,1.10000,0.90000
    90,'BICKERD4    ', 240.0000,1,  29,  99,  17,1.08918, -16.6177,1.10000,0.90000,1.10000,0.90000
    91,'NISKU  7    ', 138.0000,1,  60,  99,  17,0.99808, -22.2634,1.10000,0.90000,1.10000,0.90000
    93,'WETASKI7    ', 138.0000,1,  31,  99,  17,1.01745, -21.3984,1.10000,0.90000,1.10000,0.90000
    94,'ERVICK 7    ', 138.0000,1,  31,  99,  17,0.99710, -21.2721,1.10000,0.90000,1.10000,0.90000
    95,'PONOKA 7    ', 138.0000,1,  31,  99,  17,0.99954, -22.1354,1.10000,0.90000,1.10000,0.90000
    96,'DEVON  7    ', 138.0000,1,  60,  99,  17,0.98678, -22.3854,1.10000,0.90000,1.10000,0.90000
    97,'ECKVILL7    ', 138.0000,1,  35,  99,  17,1.02731, -20.3804,1.10000,0.90000,1.10000,0.90000
    98,'RIMBEY 7    ', 138.0000,1,  35,  99,  17,1.01436, -20.9132,1.10000,0.90000,1.10000,0.90000
    99,'BENALTO7    ', 138.0000,1,  35,  99,  17,1.03611, -19.9989,1.10000,0.90000,1.10000,0.90000
   100,'ROCKY M7    ', 138.0000,1,  38,  99,  17,1.00547, -21.6090,1.10000,0.90000,1.10000,0.90000
   101,'COOKING7    ', 138.0000,1,  60,  99,  17,1.00793, -19.9963,1.10000,0.90000,1.10000,0.90000
   102,'BIGHORN1    ',  13.8000,2,  34,  99,  17,0.98513, -16.9060,1.10000,0.90000,1.10000,0.90000
   103,'BIG HOR7    ', 138.0000,1,  34,  99,  17,1.00483, -16.9060,1.10000,0.90000,1.10000,0.90000
   104,'STRACHA7    ', 138.0000,1,  38,  99,  17,1.00555, -21.6977,1.10000,0.90000,1.10000,0.90000
   105,'PIGEON 7    ', 138.0000,1,  31,  99,  17,1.00756, -21.8368,1.10000,0.90000,1.10000,0.90000
   106,'DEERLAN7    ', 138.0000,1,  33,  99,  17,1.03328, -19.0508,1.10000,0.90000,1.10000,0.90000
   107,'SUNDRE 7    ', 138.0000,1,  38,  99,  17,0.97608, -24.1794,1.10000,0.90000,1.10000,0.90000
   108,'BIGHORN2    ',  13.8000,2,  34,  99,  17,0.97200, -10.2252,1.10000,0.90000,1.10000,0.90000
   109,'DEERLAN4    ', 240.0000,1,  33,  99,  17,1.04477, -18.1431,1.10000,0.90000,1.10000,0.90000
   110,'IPL EDM7    ', 138.0000,1,  60,  99,  17,1.02654, -19.7419,1.10000,0.90000,1.10000,0.90000
   111,'SANDHIL7    ', 138.0000,1,  48,  99,  17,1.03902, -15.7939,1.10000,0.90000,1.10000,0.90000
   112,'SUNKEN7     ', 138.0000,1,  37,  99,  17,1.03531, -16.1275,1.10000,0.90000,1.10000,0.90000
   113,'BLACKFA7    ', 138.0000,1,  35,  99,  17,1.00773, -21.6005,1.10000,0.90000,1.10000,0.90000
   114,'LACOMBE7    ', 138.0000,1,  35,  99,  17,1.00067, -21.9792,1.10000,0.90000,1.10000,0.90000
   115,'S RED DE    ', 138.0000,1,  35,  99,  17,1.02105, -20.9909,1.10000,0.90000,1.10000,0.90000
   116,'W LACOMB    ', 138.0000,1,  35,  99,  17,1.00348, -21.8735,1.10000,0.90000,1.10000,0.90000
   117,'RED DE A    ', 138.0000,1,  35,  99,  17,1.02559, -20.7991,1.10000,0.90000,1.10000,0.90000
   118,'RED DE B    ', 138.0000,1,  35,  99,  17,1.02559, -20.7991,1.10000,0.90000,1.10000,0.90000
   119,'N RED D7    ', 138.0000,1,  35,  99,  17,1.01878, -21.0247,1.10000,0.90000,1.10000,0.90000
   120,'INNISFA7    ', 138.0000,1,  39,  99,  17,1.00361, -22.6853,1.10000,0.90000,1.10000,0.90000
   121,'OLDS   7    ', 138.0000,1,  39,  99,  17,0.98490, -24.4620,1.10000,0.90000,1.10000,0.90000
   122,'MADDEN 7    ', 138.0000,1,  39,  99,  17,0.98356, -25.6107,1.10000,0.90000,1.10000,0.90000
   123,'DIDSBURY    ', 138.0000,1,  39,  99,  17,0.98562, -24.9232,1.10000,0.90000,1.10000,0.90000
   124,'HARMATT7    ', 138.0000,1,  39,  99,  17,0.98483, -24.9011,1.10000,0.90000,1.10000,0.90000
   125,'YASAA7      ', 138.0000,1,  60,  99,  17,1.02613, -19.7548,1.10000,0.90000,1.10000,0.90000
   126,'SHELL H7    ', 138.0000,1,  39,  99,  17,0.98453, -24.9525,1.10000,0.90000,1.10000,0.90000
   127,'BEDDING2    ', 138.0000,1,   6,  99,   3,1.02225, -24.1991,1.10000,0.90000,1.10000,0.90000
   128,'ELLERSLI    ', 240.0000,1,  60,  99,  17,1.03962, -14.8594,1.10000,0.90000,1.10000,0.90000
   130,'SUND#3GN    ',  20.0000,2,  40,  99,  17,1.02000,  -4.9886,1.10000,0.90000,1.10000,0.90000
   131,'SUNDANA8    ',  69.0000,1,  40,  99,  17,1.01383, -14.8742,1.10000,0.90000,1.10000,0.90000
   132,'SUNDANC7    ', 138.0000,1,  40,  99,  17,1.02916, -13.0889,1.10000,0.90000,1.10000,0.90000
   133,'WABAMUN4    ', 240.0000,1,  40,  99,  17,1.06417, -14.4168,1.10000,0.90000,1.10000,0.90000
   134,'WABAMUN7    ', 138.0000,1,  40,  99,  17,1.03109, -17.1985,1.10000,0.90000,1.10000,0.90000
   135,'SUNDANC4    ', 240.0000,1,  40,  99,  17,1.07865, -12.7446,1.10000,0.90000,1.10000,0.90000
   136,'E EDMON4    ', 240.0000,1,  60,  99,  17,1.03165, -15.9729,1.10000,0.90000,1.10000,0.90000
   137,'N CALDE4    ', 240.0000,1,  60,  99,  17,1.03579, -17.4103,1.10000,0.90000,1.10000,0.90000
   138,'N BARRH4    ', 240.0000,1,  40,  99,  17,1.09575, -16.4847,1.10000,0.90000,1.10000,0.90000
   141,'DALEHUR7    ', 138.0000,1,  29,  99,  17,1.04513, -20.2199,1.10000,0.90000,1.10000,0.90000
   142,'KINGMAN7    ', 138.0000,1,  31,  99,  17,0.99956, -20.2018,1.10000,0.90000,1.10000,0.90000
   144,'ALGAR  7    ', 138.0000,1,  61,  99,   1,1.06302, -13.8274,1.10000,0.90000,1.10000,0.90000
   147,'GAETZ  4    ', 240.0000,1,  35,  99,  17,1.03413, -18.8326,1.10000,0.90000,1.10000,0.90000
   148,'GAETZ  7    ', 138.0000,1,  35,  99,  17,1.02192, -20.7134,1.10000,0.90000,1.10000,0.90000
   150,'WILLESD4    ', 240.0000,1,  30,  99,  17,1.05935, -18.1211,1.10000,0.90000,1.10000,0.90000
   151,'BRAZ#1 9    ',  13.8000,2,  30,  99,  17,0.98000, -15.7097,1.10000,0.90000,1.10000,0.90000
   152,'RED DEE4    ', 240.0000,1,  35,  99,  17,1.04173, -18.4960,1.10000,0.90000,1.10000,0.90000
   153,'BRAZEAU4    ', 240.0000,1,  30,  99,  17,1.05560, -18.0935,1.10000,0.90000,1.10000,0.90000
   154,'BRAZ#2 9    ',  13.8000,2,  30,  99,  17,0.98508, -18.0935,1.10000,0.90000,1.10000,0.90000
   155,'BENALTO4    ', 240.0000,1,  35,  99,  17,1.06355, -17.8596,1.10000,0.90000,1.10000,0.90000
   156,'E CROSS4    ', 240.0000,1,  57,  99,  17,1.03910, -20.5549,1.10000,0.90000,1.10000,0.90000
   157,'COCHIN 8    ',  69.0000,1,  32,  99, 241,1.03975, -17.7743,1.10000,0.90000,1.10000,0.90000
   158,'LANGDON2    ', 500.0000,1,   6,  99,  17,1.05617, -16.7059,1.10000,0.90000,1.10000,0.90000
   159,'LANGDON4    ', 240.0000,1,   6,  99,  17,1.05400, -18.8545,1.10000,0.90000,1.10000,0.90000
   160,'JANET  4    ', 240.0000,1,   6,  99,  17,1.05015, -21.0291,1.10000,0.90000,1.10000,0.90000
   161,'SARCEE 4    ', 240.0000,1,   6,  99,  17,1.05111, -23.3969,1.10000,0.90000,1.10000,0.90000
   162,'E CALGAR    ', 240.0000,1,   6,  99,  17,1.03968, -22.6006,1.10000,0.90000,1.10000,0.90000
   163,'SAGITAW4    ', 240.0000,1,  26,  99,  17,1.07596, -18.2436,1.10000,0.90000,1.10000,0.90000
   164,'SAGITAW7    ', 138.0000,1,  26,  99,  17,1.04384, -19.5954,1.10000,0.90000,1.10000,0.90000
   165,'PEIGAN 4    ', 240.0000,1,  53,  99, 191,1.02730, -15.5303,1.10000,0.90000,1.10000,0.90000
   166,'PEIGAN 7    ', 138.0000,1,  53,  99, 191,1.03266, -12.7417,1.10000,0.90000,1.10000,0.90000
   167,'N LETHB4    ', 240.0000,1,  54,  99,  17,1.02752, -16.6144,1.10000,0.90000,1.10000,0.90000
   168,'SUNSHIN8    ',  69.0000,1,  44,  99,  17,0.99941, -32.1400,1.10000,0.90000,1.10000,0.90000
   169,'CAN CEM7    ', 138.0000,1,  44,  99,  17,1.02139, -25.0133,1.10000,0.90000,1.10000,0.90000
   170,'COCHRAN7    ', 138.0000,1,  44,  99,  17,0.99060, -27.3154,1.10000,0.90000,1.10000,0.90000
   171,'SEEBE  7    ', 138.0000,1,  44,  99, 191,1.01920, -24.8810,1.10000,0.90000,1.10000,0.90000
   172,'HORS GEN    ',  12.0000,2,  44,  99,  17,1.02500, -22.9857,1.10000,0.90000,1.10000,0.90000
   173,'BRETV A7    ', 138.0000,1,  60,  99,  17,1.02571, -19.7745,1.10000,0.90000,1.10000,0.90000
   174,'SPRAY G1    ',  13.2000,2,  44,  99,  17,1.04663, -19.3941,1.10000,0.90000,1.10000,0.90000
   175,'CASCADE7    ', 138.0000,1,  44,  99, 194,1.02275, -25.0539,1.10000,0.90000,1.10000,0.90000
   176,'CASCADE9    ',  13.2000,2,  44,  99, 194,1.04775, -22.8750,1.10000,0.90000,1.10000,0.90000
   177,'AIRDRIE     ', 138.0000,1,  57,  99,  17,1.01191, -23.1811,1.10000,0.90000,1.10000,0.90000
   178,'BANFF  8    ',  69.0000,1,  44,  99,  17,1.00444, -31.8879,1.10000,0.90000,1.10000,0.90000
   179,'MARIANA7    ', 138.0000,1,  61,  99,   1,1.06427, -14.2630,1.10000,0.90000,1.10000,0.90000
   180,'GHOST  7    ', 138.0000,1,  44,  99,  17,1.00333, -26.0081,1.10000,0.90000,1.10000,0.90000
   181,'GHOST A9    ',  13.2000,2,  44,  99,  17,1.00000, -24.1091,1.10000,0.90000,1.10000,0.90000
   183,'BEARSPWB    ',  13.2000,2,  44,  99,  17,1.03122, -26.8890,1.10000,0.90000,1.10000,0.90000
   184,'BEARSPAW    ', 138.0000,1,  44,  99,  17,0.99702, -27.1710,1.10000,0.90000,1.10000,0.90000
   187,'BEDDING1    ', 240.0000,1,   6,  99,   3,1.04261, -21.6641,1.10000,0.90000,1.10000,0.90000
   188,'ANG COCA    ',  25.0000,1,  44,  99,  17,1.03627, -29.1832,1.10000,0.90000,1.10000,0.90000
   189,'ANG COCB    ',  13.8000,2,  44,  99,  17,1.00276, -31.5285,1.10000,0.90000,1.10000,0.90000
   190,'SPRAY G2    ',  13.2000,2,  44,  99,  17,1.02720, -24.6882,1.10000,0.90000,1.10000,0.90000
   191,'ANG COCH    ', 138.0000,1,  44,  99,  17,0.98935, -27.2988,1.10000,0.90000,1.10000,0.90000
   192,'NELSON L    ', 138.0000,1,  31,  99,  17,0.99557, -22.3192,1.10000,0.90000,1.10000,0.90000
   193,'KANANAS7    ', 138.0000,1,  44,  99,  17,1.01971, -24.8483,1.10000,0.90000,1.10000,0.90000
   194,'LAKE LO8    ',  69.0000,1,  44,  99,  17,0.96787, -32.7184,1.10000,0.90000,1.10000,0.90000
   195,'RUNDLE S    ', 138.0000,1,  44,  99,  17,1.02691, -24.7625,1.10000,0.90000,1.10000,0.90000
   196,'KANANAS9    ',  12.0000,2,  44,  99,  17,1.03366, -22.8214,1.10000,0.90000,1.10000,0.90000
   197,'RUNDLE G    ',  13.8000,2,  44,  99,  17,1.04761, -21.7137,1.10000,0.90000,1.10000,0.90000
   198,'BALZAC 7    ', 138.0000,1,   6,  99,  17,1.02300, -24.0702,1.10000,0.90000,1.10000,0.90000
   199,'SHELL J7    ', 138.0000,1,  44,  99,  17,1.00090, -26.3070,1.10000,0.90000,1.10000,0.90000
   201,'JUMPPND7    ', 138.0000,1,  44,  99,  17,1.01095, -25.6399,1.10000,0.90000,1.10000,0.90000
   202,'SARCEE 7    ', 138.0000,1,   6,  99,  17,1.00566, -26.3447,1.10000,0.90000,1.10000,0.90000
   203,'SARCEE C    ',  13.8000,1,   6,  99,  17,1.05817, -26.4370,1.10000,0.90000,1.10000,0.90000
   204,'MCMILLA4    ', 240.0000,1,  61,  99,   1,1.11010, -13.5719,1.10000,0.90000,1.10000,0.90000
   205,'AMOCO R7    ', 138.0000,1,  38,  99,  17,0.98016, -23.5144,1.10000,0.90000,1.10000,0.90000
   207,'JANET  7    ', 138.0000,1,   6,  99,  17,1.01637, -24.8310,1.10000,0.90000,1.10000,0.90000
   208,'ENMX2S 7    ', 138.0000,1,   6,  99,   3,1.00879, -26.7746,1.10000,0.90000,1.10000,0.90000
   209,'BRETONA1    ', 138.0000,1,  60,  99,  17,1.01761, -19.9456,1.10000,0.90000,1.10000,0.90000
   211,'MOUNT A7    ', 138.0000,1,  44,  99,  17,1.02478, -24.7987,1.10000,0.90000,1.10000,0.90000
   213,'HAIGRIVE    ', 138.0000,1,  17,  99,   1,1.10234, -23.0815,1.10000,0.90000,1.10000,0.90000
   214,'POCATEA9    ',  13.8000,2,  44,  99,  17,1.00149, -19.6735,1.10000,0.90000,1.10000,0.90000
   215,'TEX.W.P7    ', 138.0000,1,  30,  99,  17,1.02356, -20.7838,1.10000,0.90000,1.10000,0.90000
   216,'BARRIER7    ', 138.0000,1,  44,  99,  17,1.02215, -24.8090,1.10000,0.90000,1.10000,0.90000
   218,'BLACKMUD    ', 138.0000,1,  60,  99,  17,0.99340, -22.3821,1.10000,0.90000,1.10000,0.90000
   219,'KILLARN7    ', 138.0000,1,  37,  99,  17,1.01568, -19.9875,1.10000,0.90000,1.10000,0.90000
   220,'HAYTER 7    ', 138.0000,1,  37,  99,  17,1.00046, -20.6085,1.10000,0.90000,1.10000,0.90000
   221,'CRR-W1      ', 240.0000,1,  53,  99,  58,1.02455, -14.9384,1.10000,0.90000,1.10000,0.90000
   222,'BARRIER9    ',  13.2000,2,  44,  99,  17,1.03000, -22.1316,1.10000,0.90000,1.10000,0.90000
   223,'PINCHER8    ',  69.0000,1,  53,  99,  17,1.03055, -14.1612,1.10000,0.90000,1.10000,0.90000
   224,'PINCHER7    ', 138.0000,1,  53,  99,  17,1.03664, -13.8089,1.10000,0.90000,1.10000,0.90000
   225,'WARE JCT    ', 240.0000,1,  47,  99,  17,1.06783, -10.5743,1.10000,0.90000,1.10000,0.90000
   226,'DRYWOOD8    ',  69.0000,1,  55,  99,  17,1.03084, -15.4555,1.10000,0.90000,1.10000,0.90000
   227,'SHELL WA    ',  69.0000,1,  55,  99,  17,1.01826, -15.5492,1.10000,0.90000,1.10000,0.90000
   228,'YARROW 8    ',  69.0000,1,  55,  99,  17,1.03070, -15.4594,1.10000,0.90000,1.10000,0.90000
   229,'170AL-TA    ', 138.0000,1,  53,  99,  17,1.04049, -14.4377,1.10000,0.90000,1.10000,0.90000
...
0 / END OF BUS DATA, BEGIN LOAD DATA
    14,'99',1,  27,  99,     0.183,     0.092,     0.000,     0.000,     0.000,     0.000,   4,1,0
    33,'99',1,  30,  99,     3.030,     1.513,     0.000,     0.000,     0.000,     0.000,  17,1,0
    43,'37',1,  33,  37,   206.057,   103.028,     0.000,     0.000,     0.000,     0.000,  29,1,0
    43,'99',1,  33,  99,     5.019,     2.506,     0.000,     0.000,     0.000,     0.000,  29,1,0
    50,'37',1,  33,  37,    15.650,     7.825,     0.000,     0.000,     0.000,     0.000, 211,1,0
    50,'99',1,  33,  99,     9.213,     4.601,     0.000,     0.000,     0.000,     0.000, 211,1,0
    61,'37',1,  33,  37,    32.293,    16.146,     0.000,     0.000,     0.000,     0.000, 191,1,0
    61,'99',1,  33,  99,    34.752,    17.355,     0.000,     0.000,     0.000,     0.000, 191,1,0
    80,'99',1,  30,  99,     0.023,     0.012,     0.000,     0.000,     0.000,     0.000,  17,1,0
   127,'99',1,   6,  99,    11.866,     5.926,     0.000,     0.000,     0.000,     0.000,   3,1,0
   130,'36',1,  40,  36,    23.600,    11.800,     0.000,     0.000,     0.000,     0.000,  17,1,0
   165,'99',1,  53,  99,     0.000,     0.000,     0.000,     0.000,     0.000,     0.000, 191,1,0
   167,'99',1,  54,  99,     0.003,     0.002,     0.000,     0.000,     0.000,     0.000,  17,1,0
   176,'99',1,  44,  99,     0.008,     0.004,     0.000,     0.000,     0.000,     0.000, 194,1,0
   180,'99',1,  44,  99,     5.557,     2.775,     0.000,     0.000,     0.000,     0.000,  17,1,0
   188,'99',1,  44,  99,     9.249,     4.619,     0.000,     0.000,     0.000,     0.000,  17,1,0
   189,'99',1,  44,  99,    12.354,     6.170,     0.000,     0.000,     0.000,     0.000,  17,1,0
   199,'99',1,  44,  99,     5.785,     2.889,     0.000,     0.000,     0.000,     0.000,  17,1,0
   222,'99',1,  44,  99,     0.009,     0.005,     0.000,     0.000,     0.000,     0.000,  17,1,0
   234,'99',1,  53,  99,     0.068,     0.034,     0.000,     0.000,     0.000,     0.000,  44,1,0
   239,'99',1,  46,  99,     0.785,     0.392,     0.000,     0.000,     0.000,     0.000,  17,1,0
   248,'37',1,  28,  37,    26.630,    13.315,     0.000,     0.000,     0.000,     0.000,  36,1,0
   255,'99',1,  53,  99,     0.036,     0.018,     0.000,     0.000,     0.000,     0.000,  17,1,0
   265,'99',1,  53,  99,     0.036,     0.018,     0.000,     0.000,     0.000,     0.000,  17,1,0
   268,'99',1,  48,  99,     3.328,     1.662,     0.000,     0.000,     0.000,     0.000,  17,1,0
   271,'99',1,   4,  99,     0.003,     0.002,     0.000,     0.000,     0.000,     0.000,  17,1,0
   274,'99',1,  52,  99,    11.274,     5.630,     0.000,     0.000,     0.000,     0.000,  17,1,0
   287,'99',1,  48,  99,     4.754,     2.374,     0.000,     0.000,     0.000,     0.000,  17,1,0
   288,'99',1,  48,  99,     2.377,     1.187,     0.000,     0.000,     0.000,     0.000,  17,1,0
   289,'99',1,  48,  99,     3.090,     1.543,     0.000,     0.000,     0.000,     0.000,  17,1,0
   296,'99',1,  53,  99,     0.002,     0.001,     0.000,     0.000,     0.000,     0.000,  17,1,0
   305,'99',1,  27,  99,    10.420,     5.204,     0.000,     0.000,     0.000,     0.000,  17,1,0
   330,'99',1,  30,  99,     3.725,     1.860,     0.000,     0.000,     0.000,     0.000,  17,1,0
   342,'36',1,  40,  36,    24.300,    12.200,     0.000,     0.000,     0.000,     0.000,  17,1,0
   345,'36',1,  40,  36,    22.300,    11.100,     0.000,     0.000,     0.000,     0.000,  17,1,0
   348,'99',1,  61,  99,     0.721,     0.360,     0.000,     0.000,     0.000,     0.000,  17,1,0
   350,'36',1,  40,  36,    24.000,    12.000,     0.000,     0.000,     0.000,     0.000,  17,1,0
   375,'99',1,  44,  99,     0.029,     0.015,     0.000,     0.000,     0.000,     0.000,  17,1,0
   380,'99',1,  44,  99,     2.069,     1.033,     0.000,     0.000,     0.000,     0.000,  17,1,0
   383,'35',1,  35,  35,    21.927,     0.000,     0.000,     0.000,     0.000,     0.000,  17,1,0
   383,'37',1,  35,  37,    55.823,    27.912,     0.000,     0.000,     0.000,     0.000,  17,1,0
   383,'99',1,  35,  99,    71.031,    35.472,     0.000,     0.000,     0.000,     0.000,  17,1,0
   403,'36',1,  40,  36,     4.700,     2.300,     0.000,     0.000,     0.000,     0.000,  17,1,0
   405,'36',1,  61,  36,     3.000,     1.500,     0.000,     0.000,     0.000,     0.000, 251,1,0
   405,'37',1,  61,  37,     4.887,     2.443,     0.000,     0.000,     0.000,     0.000, 251,1,0
   407,'99',1,  54,  99,     0.030,     0.015,     0.000,     0.000,     0.000,     0.000,  17,1,0
   414,'99',1,  55,  99,     0.035,     0.017,     0.000,     0.000,     0.000,     0.000,  17,1,0
   422,'36',1,  40,  36,     6.700,     3.300,     0.000,     0.000,     0.000,     0.000,  17,1,0
   424,'35',1,  40,  35,    88.453,     0.000,     0.000,     0.000,     0.000,     0.000,  17,1,0
   424,'36',1,  40,  36,    21.100,    10.500,     0.000,     0.000,     0.000,     0.000,  17,1,0
   440,'99',1,  31,  99,     0.008,     0.004,     0.000,     0.000,     0.000,     0.000,  17,1,0
   478,'99',1,  44,  99,    22.581,    11.277,     0.000,     0.000,     0.000,     0.000,  17,1,0
   490,'36',1,  40,  36,    43.500,    21.700,     0.000,     0.000,     0.000,     0.000,   5,1,0
   491,'36',1,  40,  36,    31.800,    15.900,     0.000,     0.000,     0.000,     0.000,   5,1,0
   492,'36',1,  40,  36,    14.800,     7.400,     0.000,     0.000,     0.000,     0.000,   5,1,0
   666,'99',1,  58,  99,     0.350,     0.175,     0.000,     0.000,     0.000,     0.000,   1,1,0
   680,'37',1,   4,  37,   116.553,    58.276,     0.000,     0.000,     0.000,     0.000,  17,1,0
  1029,'99',1,  17,  99,    10.180,     5.084,     0.000,     0.000,     0.000,     0.000,   1,1,0
  1031,'99',1,  17,  99,     5.689,     2.841,     0.000,     0.000,     0.000,     0.000,   1,1,0
  1032,'99',1,  17,  99,    14.072,     7.027,     0.000,     0.000,     0.000,     0.000,   1,1,0
  1035,'99',1,  17,  99,     0.030,     0.015,     0.000,     0.000,     0.000,     0.000,  21,1,0
  1037,'99',1,  17,  99,     0.016,     0.008,     0.000,     0.000,     0.000,     0.000,  21,1,0
  1050,'99',1,  19,  99,     3.660,     1.828,     0.000,     0.000,     0.000,     0.000,   1,1,0
  1089,'34',1,  19,  34,    27.000,    12.000,     0.000,     0.000,     0.000,     0.000,  33,1,0
  1101,'37',1,  20,  37,     6.382,     3.191,     0.000,     0.000,     0.000,     0.000,  30,1,0
  1146,'37',1,  20,  37,    13.818,     6.909,     0.000,     0.000,     0.000,     0.000,  39,1,0
  1148,'36',1,  22,  36,    14.900,     7.500,     0.000,     0.000,     0.000,     0.000,   1,1,0
  1167,'99',1,  23,  99,     0.023,     0.012,     0.000,     0.000,     0.000,     0.000,   1,1,0
  1168,'99',1,  23,  99,     0.031,     0.016,     0.000,     0.000,     0.000,     0.000,   1,1,0
  1171,'35',1,  23,  35,     7.733,     0.000,     0.000,     0.000,     0.000,     0.000,   1,1,0
  1171,'99',1,  23,  99,     0.293,     0.146,     0.000,     0.000,     0.000,     0.000,   1,1,0
  1173,'35',1,  23,  35,     0.769,     0.000,     0.000,     0.000,     0.000,     0.000,   1,1,0
  1173,'99',1,  23,  99,     0.293,     0.146,     0.000,     0.000,     0.000,     0.000,   1,1,0
  1205,'35',1,  59,  35,    15.071,     0.000,     0.000,     0.000,     0.000,     0.000,   9,1,0
  1205,'37',1,  59,  37,   391.207,   195.603,     0.000,     0.000,     0.000,     0.000,   9,1,0
  1208,'35',1,  59,  35,     8.758,     0.000,     0.000,     0.000,     0.000,     0.000,  10,1,0
  1208,'37',1,  59,  37,   334.823,   167.411,     0.000,     0.000,     0.000,     0.000,  10,1,0
  1224,'99',1,  59,  99,     9.663,     4.826,     0.000,     0.000,     0.000,     0.000,   1,1,0
  1231,'99',1,  21,  99,    15.582,     7.781,     0.000,     0.000,     0.000,     0.000,   1,1,0
  1232,'99',1,  21,  99,    15.582,     7.781,     0.000,     0.000,     0.000,     0.000,   1,1,0
  1236,'35',1,  59,  35,    11.781,     0.000,     0.000,     0.000,     0.000,     0.000,  40,1,0
  1236,'37',1,  59,  37,    22.898,    11.449,     0.000,     0.000,     0.000,     0.000,  40,1,0
  1236,'99',1,  59,  99,     0.350,     0.175,     0.000,     0.000,     0.000,     0.000,  40,1,0
  1241,'37',1,  61,  37,    81.233,    40.617,     0.000,     0.000,     0.000,     0.000,  99,1,0
  1251,'37',1,  58,  37,    57.100,    28.550,     0.000,     0.000,     0.000,     0.000, 261,1,0
  1251,'99',1,  58,  99,     8.117,     4.053,     0.000,     0.000,     0.000,     0.000, 261,1,0
  1262,'37',1,  58,  37,    19.522,     9.761,     0.000,     0.000,     0.000,     0.000, 261,1,0
  1262,'99',1,  58,  99,     1.816,     0.907,     0.000,     0.000,     0.000,     0.000, 261,1,0
  1274,'37',1,  58,  37,     9.158,     4.579,     0.000,     0.000,     0.000,     0.000,   1,1,0
  1289,'37',1,  59,  37,    60.369,    30.184,     0.000,     0.000,     0.000,     0.000, 481,1,0
  1301,'36',1,  28,  36,     2.600,     1.400,     0.000,     0.000,     0.000,     0.000,  63,1,0
  1301,'37',1,  28,  37,    32.885,    16.443,     0.000,     0.000,     0.000,     0.000,  63,1,0
  1301,'99',1,  28,  99,     4.688,     2.341,     0.000,     0.000,     0.000,     0.000,  63,1,0
  1302,'37',1,  28,  37,    68.956,    34.478,     0.000,     0.000,     0.000,     0.000,   1,1,0
  1302,'99',1,  28,  99,     1.522,     0.760,     0.000,     0.000,     0.000,     0.000,   1,1,0
  1471,'99',1,  42,  99,    10.333,     5.160,     0.000,     0.000,     0.000,     0.000,   1,1,0
  1473,'34',1,  48,  34,   -61.240,   -61.240,     0.000,     0.000,     0.000,     0.000,   1,1,0
  1474,'99',1,  42,  99,     9.756,     4.872,     0.000,     0.000,     0.000,     0.000,   1,1,0
  1482,'36',1,  43,  36,    13.800,     6.900,     0.000,     0.000,     0.000,     0.000,   1,1,0
  1487,'36',1,  43,  36,    14.800,     7.400,     0.000,     0.000,     0.000,     0.000,   1,1,0
  1495,'36',1,  36,  36,     8.400,     4.200,     0.000,     0.000,     0.000,     0.000,   1,1,0
  1496,'36',1,  36,  36,    10.900,     5.500,     0.000,     0.000,     0.000,     0.000,   1,1,0
  1497,'36',1,  36,  36,    18.600,     9.300,     0.000,     0.000,     0.000,     0.000,   1,1,0
  1503,'34',1,  15,  34,    10.000,     3.300,     0.000,     0.000,     0.000,     0.000,   2,1,0
  1504,'34',1,  15,  34,    10.000,     3.300,     0.000,     0.000,     0.000,     0.000,   2,1,0
  1505,'34',1,  15,  34,    10.000,     3.300,     0.000,     0.000,     0.000,     0.000,   2,1,0
  1506,'34',1,  15,  34,    10.000,     3.300,     0.000,     0.000,     0.000,     0.000,   2,1,0
  1681,'99',1,  59,  99,    28.409,    14.187,     0.000,     0.000,     0.000,     0.000,  36,1,0
  1683,'99',1,  59,  99,     7.748,     3.869,     0.000,     0.000,     0.000,     0.000,  36,1,0
  1684,'99',1,  59,  99,    28.409,    14.187,     0.000,     0.000,     0.000,     0.000,  36,1,0
  2053,'99',1,  48,  99,     3.111,     1.554,     0.000,     0.000,     0.000,     0.000,  17,1,0
  2060,'99',1,  33,  99,    11.356,     5.671,     0.000,     0.000,     0.000,     0.000,  17,1,0
  2062,'99',1,  33,  99,     7.110,     3.551,     0.000,     0.000,     0.000,     0.000,  17,1,0
  2063,'99',1,  33,  99,     7.319,     3.655,     0.000,     0.000,     0.000,     0.000,  17,1,0
  2085,'99',1,  26,  99,    18.719,     9.348,     0.000,     0.000,     0.000,     0.000,  17,1,0
  2089,'99',1,  60,  99,    16.428,     8.204,     0.000,     0.000,     0.000,     0.000,  17,1,0
  2103,'99',1,  34,  99,     2.018,     1.008,     0.000,     0.000,     0.000,     0.000,  17,1,0
  2125,'99',1,  60,  99,     8.162,     4.076,     0.000,     0.000,     0.000,     0.000,  17,1,0
  2169,'99',1,  44,  99,     3.110,     1.553,     0.000,     0.000,     0.000,     0.000,  17,1,0
  2173,'99',1,  60,  99,     5.540,     2.767,     0.000,     0.000,     0.000,     0.000,  17,1,0
  2198,'99',1,   6,  99,     9.156,     4.572,     0.000,     0.000,     0.000,     0.000,  17,1,0
  2208,'99',1,   6,  99,    11.400,     5.693,     0.000,     0.000,     0.000,     0.000,   3,1,0
  2218,'99',1,  60,  99,    10.140,     5.064,     0.000,     0.000,     0.000,     0.000,  17,1,0
  2230,'35',1,  53,  35,     2.569,     0.000,     0.000,     0.000,     0.000,     0.000,   1,1,0
  2230,'99',1,  53,  99,     0.012,     0.006,     0.000,     0.000,     0.000,     0.000,   1,1,0
  2231,'99',1,  55,  99,     1.612,     0.805,     0.000,     0.000,     0.000,     0.000,  17,1,0
  2242,'99',1,  46,  99,    17.535,     8.757,     0.000,     0.000,     0.000,     0.000,  17,1,0
  2260,'99',1,  48,  99,    12.234,     6.110,     0.000,     0.000,     0.000,     0.000,  17,1,0
  2266,'99',1,  48,  99,     3.552,     1.774,     0.000,     0.000,     0.000,     0.000,  17,1,0
  2269,'99',1,  52,  99,     7.922,     3.956,     0.000,     0.000,     0.000,     0.000,  17,1,0
  2284,'99',1,   4,  99,     2.410,     1.204,     0.000,     0.000,     0.000,     0.000,  17,1,0
  2297,'99',1,  32,  99,    10.765,     5.376,     0.000,     0.000,     0.000,     0.000,  17,1,0
  2298,'99',1,  26,  99,    24.064,    12.017,     0.000,     0.000,     0.000,     0.000,  17,1,0
  2311,'99',1,  60,  99,    24.451,    12.210,     0.000,     0.000,     0.000,     0.000,  17,1,0
  2315,'99',1,  45,  99,     1.678,     0.838,     0.000,     0.000,     0.000,     0.000,  17,1,0
  2340,'99',1,  45,  99,     7.956,     3.973,     0.000,     0.000,     0.000,     0.000,  17,1,0
  2344,'99',1,  48,  99,     2.477,     1.237,     0.000,     0.000,     0.000,     0.000,  17,1,0
  2357,'99',1,  60,  99,    12.067,     6.026,     0.000,     0.000,     0.000,     0.000,  17,1,0
  2364,'99',1,  40,  99,    13.757,     6.870,     0.000,     0.000,     0.000,     0.000,  17,1,0
  2366,'99',1,  60,  99,    13.341,     6.662,     0.000,     0.000,     0.000,     0.000,  17,1,0
  2368,'99',1,  29,  99,     5.627,     2.810,     0.000,     0.000,     0.000,     0.000,  17,1,0
  2369,'99',1,  61,  99,    11.766,     5.876,     0.000,     0.000,     0.000,     0.000,  17,1,0
  2370,'99',1,  61,  99,    15.597,     7.789,     0.000,     0.000,     0.000,     0.000,  17,1,0
  2373,'99',1,  32,  99,     4.260,     2.127,     0.000,     0.000,     0.000,     0.000,  17,1,0
  2384,'99',1,  35,  99,    32.019,    15.990,     0.000,     0.000,     0.000,     0.000,  17,1,0
  2389,'99',1,  54,  99,     0.064,     0.032,     0.000,     0.000,     0.000,     0.000,  10,1,0
  2392,'37',1,  27,  37,    55.738,    27.869,     0.000,     0.000,     0.000,     0.000, 301,1,0
  2397,'99',1,  29,  99,    13.341,     6.663,     0.000,     0.000,     0.000,     0.000,  17,1,0
  2399,'99',1,  47,  99,    10.756,     5.371,     0.000,     0.000,     0.000,     0.000,  17,1,0
  2402,'99',1,  53,  99,     0.036,     0.018,     0.000,     0.000,     0.000,     0.000, 192,1,0
  2415,'99',1,  29,  99,     1.843,     0.920,     0.000,     0.000,     0.000,     0.000,  17,1,0
  2417,'99',1,  27,  99,    12.985,     6.484,     0.000,     0.000,     0.000,     0.000,  17,1,0
  2503,'99',1,  57,  99,     0.060,     0.030,     0.000,     0.000,     0.000,     0.000,   3,1,0
  2514,'99',1,  60,  99,     5.377,     2.685,     0.000,     0.000,     0.000,     0.000,   5,1,0
  2515,'99',1,  60,  99,    13.428,     6.706,     0.000,     0.000,     0.000,     0.000,  17,1,0
  2550,'99',1,   6,  99,    14.266,     7.124,     0.000,     0.000,     0.000,     0.000,   3,1,0
  2551,'99',1,   6,  99,    15.590,     7.786,     0.000,     0.000,     0.000,     0.000,   3,1,0
  2555,'99',1,   6,  99,    18.123,     9.051,     0.000,     0.000,     0.000,     0.000,   3,1,0
  2556,'99',1,   6,  99,     3.691,     1.843,     0.000,     0.000,     0.000,     0.000,   3,1,0
  2559,'99',1,   6,  99,     8.656,     4.323,     0.000,     0.000,     0.000,     0.000,   3,1,0
  2561,'99',1,   6,  99,    16.596,     8.288,     0.000,     0.000,     0.000,     0.000,   3,1,0
  2564,'99',1,   6,  99,     3.925,     1.960,     0.000,     0.000,     0.000,     0.000,   3,1,0
  2567,'99',1,   6,  99,    21.351,    10.662,     0.000,     0.000,     0.000,     0.000,   3,1,0
  2568,'99',1,   6,  99,     9.220,     4.604,     0.000,     0.000,     0.000,     0.000,   3,1,0
  2571,'99',1,   6,  99,     3.955,     1.975,     0.000,     0.000,     0.000,     0.000,   3,1,0
  2572,'99',1,   6,  99,    13.327,     6.655,     0.000,     0.000,     0.000,     0.000,   3,1,0
  2573,'99',1,   6,  99,     6.534,     3.263,     0.000,     0.000,     0.000,     0.000,   3,1,0
  2576,'99',1,   6,  99,    21.819,    10.896,     0.000,     0.000,     0.000,     0.000,   3,1,0
  2578,'99',1,   6,  99,     1.928,     0.963,     0.000,     0.000,     0.000,     0.000,   3,1,0
  2579,'99',1,   6,  99,    10.808,     5.398,     0.000,     0.000,     0.000,     0.000,   3,1,0
  2582,'99',1,   6,  99,     4.911,     2.452,     0.000,     0.000,     0.000,     0.000,   3,1,0
  2585,'99',1,   6,  99,    12.072,     6.029,     0.000,     0.000,     0.000,     0.000,   3,1,0
  2588,'99',1,   6,  99,    19.132,     9.554,     0.000,     0.000,     0.000,     0.000,   3,1,0
  2589,'99',1,   6,  99,    12.020,     6.002,     0.000,     0.000,     0.000,     0.000,   3,1,0
  2598,'99',1,   6,  99,    20.821,    10.398,     0.000,     0.000,     0.000,     0.000,   3,1,0
  2605,'99',1,  29,  99,     1.265,     0.632,     0.000,     0.000,     0.000,     0.000,  17,1,0
  2621,'99',1,  42,  99,     0.009,     0.005,     0.000,     0.000,     0.000,     0.000, 371,1,0
  2622,'99',1,  42,  99,     0.009,     0.005,     0.000,     0.000,     0.000,     0.000, 371,1,0
  2623,'99',1,  42,  99,     0.007,     0.003,     0.000,     0.000,     0.000,     0.000, 371,1,0
  2624,'99',1,  42,  99,     0.009,     0.005,     0.000,     0.000,     0.000,     0.000, 371,1,0
  2625,'99',1,  42,  99,     0.012,     0.006,     0.000,     0.000,     0.000,     0.000, 371,1,0
  2690,'99',1,  54,  99,    10.929,     5.458,     0.000,     0.000,     0.000,     0.000,  17,1,0
  2716,'99',1,  42,  99,     1.060,     0.529,     0.000,     0.000,     0.000,     0.000, 391,1,0
  2763,'99',1,  53,  99,     0.171,     0.086,     0.000,     0.000,     0.000,     0.000, 190,1,0
  2779,'99',1,  40,  99,     2.066,     1.032,     0.000,     0.000,     0.000,     0.000,  17,1,0
  2780,'99',1,  35,  99,     6.022,     3.008,     0.000,     0.000,     0.000,     0.000,  17,1,0
  2834,'99',1,  33,  99,    17.179,     8.579,     0.000,     0.000,     0.000,     0.000,  40,1,0
  2858,'99',1,  27,  99,     3.614,     1.805,     0.000,     0.000,     0.000,     0.000, 321,1,0
  2901,'99',1,  53,  99,     0.035,     0.017,     0.000,     0.000,     0.000,     0.000,  44,1,0
  2920,'99',1,  61,  99,     4.556,     2.275,     0.000,     0.000,     0.000,     0.000,  17,1,0
  2921,'99',1,  61,  99,     4.556,     2.275,     0.000,     0.000,     0.000,     0.000,  17,1,0
  2934,'99',1,  33,  99,    17.179,     8.579,     0.000,     0.000,     0.000,     0.000,  40,1,0
  3017,'99',1,  29,  99,    12.152,     6.069,     0.000,     0.000,     0.000,     0.000,  17,1,0
  3020,'99',1,  29,  99,    12.431,     6.208,     0.000,     0.000,     0.000,     0.000,  17,1,0
  3036,'99',1,  30,  99,     5.510,     2.752,     0.000,     0.000,     0.000,     0.000,  17,1,0
  3038,'99',1,  30,  99,     3.887,     1.941,     0.000,     0.000,     0.000,     0.000,  17,1,0
  3040,'99',1,  60,  99,    27.329,    13.648,     0.000,     0.000,     0.000,     0.000,  17,1,0
  3041,'99',1,  40,  99,    11.025,     5.506,     0.000,     0.000,     0.000,     0.000,  17,1,0
  3047,'99',1,  60,  99,    19.243,     9.610,     0.000,     0.000,     0.000,     0.000,  17,1,0
  3053,'99',1,  48,  99,     3.111,     1.554,     0.000,     0.000,     0.000,     0.000,  17,1,0
...
0 / END OF LOAD DATA, BEGIN FIXED SHUNT DATA
  1089,'1 ',0,     0.000,    36.000
0 / END OF FIXED SHUNT DATA, BEGIN GENERATOR DATA
    14,'1 ',    12.968,    -0.839,     8.200,    -5.600,1.02500,     0,    21.000, 0.00000E+0, 1.30000E-1, 0.00000E+0, 0.00000E+0,1.00000,1,  100.0,    17.000,     6.000,   4,1.0000
    33,'1 ',     0.000,     0.000,     4.100,    -2.800,1.02200,     0,     9.300, 2.00000E-3, 2.10000E-1, 0.00000E+0, 0.00000E+0,1.00000,0,  100.0,     8.400,    -0.500,  17,1.0000
    33,'2 ',     0.000,     0.000,     4.100,    -2.800,1.02200,     0,     9.300, 2.00000E-3, 2.20000E-1, 0.00000E+0, 0.00000E+0,1.00000,0,  100.0,     8.400,    -0.500,  17,1.0000
    43,'1 ',    -0.071,     0.000,     0.000,     0.000,1.03000,     0,     4.000, 0.00000E+0, 2.50000E-1, 0.00000E+0, 0.00000E+0,1.00000,1,  100.0,     0.000,    -4.000,  29,1.0000
    43,'2 ',    -0.071,     0.000,     0.000,     0.000,1.03000,     0,     4.000, 0.00000E+0, 2.50000E-1, 0.00000E+0, 0.00000E+0,1.00000,1,  100.0,     0.000,    -4.000,  29,1.0000
    43,'3 ',    -0.071,     0.000,     0.000,     0.000,1.03000,     0,     4.000, 0.00000E+0, 2.50000E-1, 0.00000E+0, 0.00000E+0,1.00000,1,  100.0,     0.000,    -4.000,  29,1.0000
    43,'4 ',    -0.071,     0.000,     0.000,     0.000,1.03000,     0,     4.000, 0.00000E+0, 2.50000E-1, 0.00000E+0, 0.00000E+0,1.00000,1,  100.0,     0.000,    -4.000,  29,1.0000
    43,'G1',    96.000,    41.900,    41.900,   -28.400,1.03000,     0,    96.100, 1.66000E-3, 2.10000E-1, 0.00000E+0, 0.00000E+0,1.00000,1,  100.0,    96.000,     0.000,  29,1.0000
    43,'G2',    -0.142,    -4.100,    -4.100,    -4.100,1.03000,     0,     9.000, 0.00000E+0, 1.67000E-1, 0.00000E+0, 0.00000E+0,1.00000,1,  100.0,     0.000,    -9.000,  29,1.0000
    43,'GT',    99.400,    48.100,    48.100,   -32.700,1.03000,     0,   110.400, 4.00000E-3, 2.19000E-1, 0.00000E+0, 0.00000E+0,1.00000,1,  100.0,    99.400,    20.000,  29,1.0000
    43,'M1',    -0.214,     0.000,     0.000,     0.000,1.03000,     0,    12.800, 0.00000E+0, 3.20000E-1, 0.00000E+0, 0.00000E+0,1.00000,1,  100.0,     0.000,   -11.190,  29,1.0000
    43,'M2',    -0.214,     0.000,     0.000,     0.000,1.03000,     0,    12.800, 0.00000E+0, 3.20000E-1, 0.00000E+0, 0.00000E+0,1.00000,1,  100.0,     0.000,   -11.190,  29,1.0000
    43,'M3',    -0.214,     0.000,     0.000,     0.000,1.03000,     0,    12.800, 0.00000E+0, 3.20000E-1, 0.00000E+0, 0.00000E+0,1.00000,1,  100.0,     0.000,   -11.190,  29,1.0000
    43,'M4',    -0.214,     0.000,     0.000,     0.000,1.03000,     0,    12.800, 0.00000E+0, 3.20000E-1, 0.00000E+0, 0.00000E+0,1.00000,1,  100.0,     0.000,   -11.190,  29,1.0000
    43,'M5',    -0.214,     0.000,     0.000,     0.000,1.03000,     0,    12.800, 0.00000E+0, 3.20000E-1, 0.00000E+0, 0.00000E+0,1.00000,1,  100.0,     0.000,   -11.190,  29,1.0000
    43,'M6',    -0.427,     0.000,     0.000,     0.000,1.03000,     0,    25.600, 0.00000E+0, 2.33000E-1, 0.00000E+0, 0.00000E+0,1.00000,1,  100.0,     0.000,   -25.600,  29,1.0000
    43,'ST',    10.681,    28.373,    46.300,   -31.400,1.03000,     0,   106.300, 3.84000E-3, 1.80000E-1, 0.00000E+0, 0.00000E+0,1.00000,1,  100.0,    95.700,    10.000,  29,1.0000
    50,'1 ',    31.204,    31.000,    31.000,   -21.100,1.03000,     0,    71.200, 0.00000E+0, 1.81000E-1, 0.00000E+0, 0.00000E+0,1.00000,1,  100.0,    64.100,    20.000, 211,1.0000
    61,'G1',    99.500,    -5.772,    48.200,   -32.700,1.03000,     0,   110.600, 0.00000E+0, 3.00000E-1, 0.00000E+0, 0.00000E+0,1.00000,1,  100.0,    99.500,     0.000, 191,1.0000
    61,'G2',    25.336,    -1.470,    48.200,   -32.700,1.03000,     0,   110.600, 0.00000E+0, 3.00000E-1, 0.00000E+0, 0.00000E+0,1.00000,1,  100.0,    99.500,     0.000, 191,1.0000
    61,'GT',    53.200,    33.387,    42.300,   -28.700,1.03000,     0,    97.000, 4.00000E-3, 2.00000E-1, 0.00000E+0, 0.00000E+0,1.00000,0,  100.0,    95.000,    17.000, 191,1.0000
    61,'M1',    -1.290,    -0.075,     0.000,    -5.800,1.03000,     0,     9.900, 6.40000E-3, 1.98000E-1, 0.00000E+0, 0.00000E+0,1.00000,1,  100.0,     0.000,    -9.698, 191,1.0000
    61,'M2',    -1.612,     0.000,     0.000,     0.000,1.03000,     0,    12.500, 5.50000E-3, 2.50000E-1, 0.00000E+0, 0.00000E+0,1.00000,1,  100.0,     0.000,   -12.520, 191,1.0000
    61,'ST',    25.100,    15.752,    23.800,   -15.000,1.03000,     0,    50.600, 5.00000E-3, 2.00000E-1, 0.00000E+0, 0.00000E+0,1.00000,0,  100.0,    45.500,    12.000, 191,1.0000
   102,'1 ',    55.000,    -0.315,    28.600,   -19.400,0.97300,     0,    65.500, 1.95000E-3, 3.40000E-1, 0.00000E+0, 0.00000E+0,1.00000,0,  100.0,    60.000,     0.000,  17,1.0000
   108,'2 ',    51.010,    -4.826,    28.600,   -19.400,0.97200,     0,    65.500, 1.95000E-3, 3.40000E-1, 0.00000E+0, 0.00000E+0,1.00000,1,  100.0,    60.000,     0.000,  17,1.0000
   130,'3A',   333.980,    11.743,   188.900,  -128.200,1.02000,     0,   483.300, 5.10000E-3, 2.07000E-1, 0.00000E+0, 0.00000E+0,1.00000,1,  100.0,   395.000,   155.500,  17,1.0000
   151,'1 ',    47.673,    -7.663,    80.200,   -54.400,0.98000,     0,   184.000, 2.00000E-3, 2.42000E-1, 0.00000E+0, 0.00000E+0,1.00000,1,  100.0,   160.000,     0.000,  17,1.0000
   154,'2 ',    23.800,    41.030,    90.200,   -61.200,0.98000,     0,   207.000, 2.00000E-3, 3.30000E-1, 0.00000E+0, 0.00000E+0,1.00000,0,  100.0,   190.000,    -3.100,  17,1.0000
   172,'1 ',     5.600,     0.815,     2.700,    -1.800,1.02500,     0,     6.300, 2.00000E-3, 2.00000E-1, 0.00000E+0, 0.00000E+0,1.00000,1,  100.0,     5.600,     0.000,  17,1.0000
   172,'2 ',     3.084,     0.449,     1.600,    -1.100,1.02500,     0,     3.800, 2.00000E-3, 2.00000E-1, 0.00000E+0, 0.00000E+0,1.00000,1,  100.0,     3.400,     0.000,  17,1.0000
   172,'3 ',     3.000,     0.716,     1.600,    -1.100,1.02500,     0,     3.800, 2.00000E-3, 2.00000E-1, 0.00000E+0, 0.00000E+0,1.00000,0,  100.0,     3.400,     0.000,  17,1.0000
   172,'4 ',     5.000,     1.193,     2.700,    -1.800,1.02500,     0,     6.300, 2.00000E-3, 2.00000E-1, 0.00000E+0, 0.00000E+0,1.00000,0,  100.0,     5.600,     0.000,  17,1.0000
   174,'1 ',    42.969,     9.275,    31.600,   -18.000,1.04663,     0,    54.600, 2.00000E-3, 2.20000E-1, 0.00000E+0, 0.00000E+0,1.00000,1,  100.0,    50.000,     0.000,  17,1.0000
   176,'1 ',    18.000,     8.700,     8.700,    -5.900,1.04775,     0,    20.000, 1.00000E-3, 2.50000E-1, 0.00000E+0, 0.00000E+0,1.00000,1,  100.0,    18.000,    -0.500, 194,1.0000
   176,'2 ',     0.030,     3.988,     9.600,    -5.800,1.04775,     0,    20.000, 1.00000E-3, 3.30000E-1, 0.00000E+0, 0.00000E+0,1.00000,1,  100.0,    18.000,    -2.000, 194,1.0000
   181,'2 ',    16.200,     5.517,     7.800,    -5.300,1.00000,     0,    15.000, 2.00000E-3, 1.70000E-1, 0.00000E+0, 0.00000E+0,1.00000,1,  100.0,    16.200,     0.000,  17,1.0000
   181,'3 ',     5.027,     1.712,     8.700,    -5.900,1.00000,     0,    15.000, 2.00000E-3, 1.70000E-1, 0.00000E+0, 0.00000E+0,1.00000,1,  100.0,    18.000,     0.000,  17,1.0000
   181,'4A',     9.100,     4.446,    12.800,    -8.700,1.00000,     0,    31.100, 1.00000E-3, 3.70000E-1, 0.00000E+0, 0.00000E+0,1.00000,0,  100.0,    26.500,    -0.500,  17,1.0000
   183,'1 ',     6.628,    -5.300,     7.800,    -5.300,1.01500,     0,    18.000, 2.00000E-3, 2.10000E-1, 0.00000E+0, 0.00000E+0,1.00000,1,  100.0,    17.400,     0.000,  17,1.0000
   189,'1 ',    -8.532,     0.000,     0.000,     0.000,1.00000,     0,    15.000, 0.00000E+0, 2.50000E-1, 0.00000E+0, 0.00000E+0,1.00000,1,  100.0,     0.000,   -15.000,  17,1.0000
   189,'2 ',    -8.532,     0.000,     0.000,     0.000,1.00000,     0,    15.000, 0.00000E+0, 2.50000E-1, 0.00000E+0, 0.00000E+0,1.00000,1,  100.0,     0.000,   -15.000,  17,1.0000
   190,'2A',    23.300,   -10.254,    27.100,   -18.400,1.00000,     0,    62.200, 1.00000E-3, 3.20000E-1, 0.00000E+0, 0.00000E+0,1.00000,0,  100.0,    56.000,     0.000,  17,1.0000
   196,'1 ',     5.000,     1.900,     1.900,    -1.300,1.04786,     0,     4.300, 2.00000E-3, 2.00000E-1, 0.00000E+0, 0.00000E+0,1.00000,1,  100.0,     5.000,     0.000,  17,1.0000
   196,'2 ',     4.690,     1.900,     1.900,    -1.300,1.04786,     0,     4.300, 2.00000E-3, 2.00000E-1, 0.00000E+0, 0.00000E+0,1.00000,1,  100.0,     5.000,     0.000,  17,1.0000
   196,'3 ',    10.000,     4.900,     4.900,    -3.300,1.04786,     0,    11.300, 2.00000E-3, 3.00000E-1, 0.00000E+0, 0.00000E+0,1.00000,0,  100.0,    10.000,     0.000,  17,1.0000
   197,'2 ',    13.946,     4.964,    15.300,   -10.400,1.04761,     0,    35.000, 2.00000E-3, 2.00000E-1, 0.00000E+0, 0.00000E+0,1.00000,1,  100.0,    33.000,    -1.000,  17,1.0000
   214,'1 ',    10.772,     6.500,     6.500,    -4.400,1.03415,     0,    15.000, 2.00000E-3, 1.60000E-1, 0.00000E+0, 0.00000E+0,1.00000,1,  100.0,    14.100,     0.000,  17,1.0000
   222,'1 ',     6.086,     0.882,     4.900,    -3.300,1.03000,     0,    11.300, 2.00000E-3, 2.50000E-1, 0.00000E+0, 0.00000E+0,1.00000,1,  100.0,    11.000,     0.000,  17,1.0000
   248,'1 ',   100.800,    10.915,    48.800,   -33.100,1.04000,     0,   112.000, 0.00000E+0, 2.27100E-1, 0.00000E+0, 0.00000E+0,1.00000,1,  100.0,   100.800,    16.000,  36,1.0000
   248,'2 ',    67.148,     7.271,    48.800,   -33.100,1.04000,     0,   112.000, 0.00000E+0, 2.27100E-1, 0.00000E+0, 0.00000E+0,1.00000,1,  100.0,   100.800,    16.000,  36,1.0000
   255,'1 ',     0.711,     0.000,     0.000,     0.000,1.02560,     0,    14.000, 3.00000E-1, 2.30000E-1, 0.00000E+0, 0.00000E+0,1.00000,1,  100.0,    11.300,     0.000,  17,1.0000
   265,'1 ',     0.100,     0.000,     0.000,     0.000,1.02551,     0,    13.800, 3.00000E-1, 2.30000E-1, 0.00000E+0, 0.00000E+0,1.00000,1,  100.0,    10.100,     0.000,  17,1.0000
   268,'1 ',    -2.463,     0.000,     0.000,     0.000,1.00000,     0,    22.400, 0.00000E+0, 1.60000E-1, 0.00000E+0, 0.00000E+0,1.00000,1,  100.0,     0.000,   -22.400,  17,1.0000
   268,'E1',    -0.246,    -0.123,     0.000,     0.000,1.00000,     0,     2.600, 0.00000E+0, 1.60000E-1, 0.00000E+0, 0.00000E+0,1.00000,0,  100.0,     0.000,    -2.600,  17,1.0000
   268,'F1',    -0.739,     0.000,     0.000,     0.000,1.00000,     0,     8.200, 0.00000E+0, 1.60000E-1, 0.00000E+0, 0.00000E+0,1.00000,1,  100.0,     0.000,    -8.200,  17,1.0000
   268,'F2',    -0.739,     0.000,     0.000,     0.000,1.00000,     0,     8.200, 0.00000E+0, 1.60000E-1, 0.00000E+0, 0.00000E+0,1.00000,1,  100.0,     0.000,    -8.200,  17,1.0000
   287,'1 ',   -13.200,     0.000,     0.000,     0.000,1.01747,     0,    22.400, 0.00000E+0, 1.60000E-1, 0.00000E+0, 0.00000E+0,1.00000,1,  100.0,     0.000,   -22.400,  17,1.0000
   287,'E2',    -0.695,     0.000,     0.000,     0.000,1.01747,     0,     2.600, 0.00000E+0, 1.60000E-1, 0.00000E+0, 0.00000E+0,1.00000,1,  100.0,     0.000,    -2.600,  17,1.0000
   288,'1 ',    -2.463,     0.000,     0.000,     0.000,1.00723,     0,    22.400, 0.00000E+0, 1.60000E-1, 0.00000E+0, 0.00000E+0,1.00000,1,  100.0,     0.000,   -22.400,  17,1.0000
   289,'1 ',    -1.970,     0.000,     0.000,     0.000,1.00747,     0,    18.700, 0.00000E+0, 2.11000E-1, 0.00000E+0, 0.00000E+0,1.00000,1,  100.0,     0.000,   -18.700,  17,1.0000
   289,'2 ',    -1.970,     0.000,     0.000,     0.000,1.00747,     0,    18.700, 0.00000E+0, 2.11000E-1, 0.00000E+0, 0.00000E+0,1.00000,1,  100.0,     0.000,   -18.700,  17,1.0000
   332,'1 ',     7.754,     0.089,     5.500,    -3.700,1.04763,     0,    12.500, 0.00000E+0, 1.30000E-1, 0.00000E+0, 0.00000E+0,1.00000,1,  100.0,    11.300,     0.000,   4,1.0000
   342,'4A',   344.042,     8.415,   181.000,  -123.000,1.02000,     0,   483.000, 2.00000E-3, 2.50000E-1, 0.00000E+0, 0.00000E+0,1.00000,1,  100.0,   430.000,   169.000,  17,1.0000
   345,'5A',   347.310,    20.220,   181.000,  -123.000,1.02000,     0,   483.700, 2.00000E-3, 2.50000E-1, 0.00000E+0, 0.00000E+0,1.00000,1,  100.0,   435.400,   150.000,  17,1.0000
   350,'6A',   318.507,    20.460,   210.000,   -50.000,1.02000,     0,   472.800, 2.00000E-3, 2.47000E-1, 0.00000E+0, 0.00000E+0,1.00000,1,  100.0,   425.000,   150.000,  17,1.0000
   377,'1 ',     2.847,    -0.328,     2.400,    -1.600,1.03085,     0,     5.600, 2.00000E-3, 2.00000E-1, 0.00000E+0, 0.00000E+0,1.00000,1,  100.0,     5.000,     0.000,  17,1.0000
   381,'1 ',     0.000,     0.000,     1.700,    -1.200,1.04255,     0,     4.000, 2.00000E-3, 2.00000E-1, 0.00000E+0, 0.00000E+0,1.00000,0,  100.0,     3.600,     0.000,  17,1.0000
   383,'1 ',   158.000,   -33.118,    48.000,   -37.000,1.01800,     0,   165.000, 7.40000E-3, 1.41000E-1, 0.00000E+0, 0.00000E+0,1.00000,1,  100.0,   158.000,    55.000,  17,1.0000
   383,'2 ',    57.000,   -11.948,    53.000,   -47.000,1.01800,     0,   171.000, 7.40000E-3, 1.41000E-1, 0.00000E+0, 0.00000E+0,1.00000,1,  100.0,   163.000,    57.000,  17,1.0000
   383,'3 ',    50.000,    -5.782,    35.000,   -43.000,1.01800,     0,   157.000, 7.50000E-3, 1.31000E-1, 0.00000E+0, 0.00000E+0,1.00000,0,  100.0,   133.000,    50.000,  17,1.0000
   403,'3 ',   331.041,    -8.474,   310.400,   -99.900,1.06000,   610,   586.000, 4.00000E-3, 2.77000E-1, 0.00000E+0, 0.00000E+0,1.00000,1,  100.0,   498.000,   142.000,  17,1.0000
   405,'1 ',    82.500,   -13.990,    25.800,   -24.700,1.10000,     0,    93.900, 3.30000E-3, 1.60000E-1, 0.00000E+0, 0.00000E+0,1.00000,1,  100.0,    82.500,     8.000, 251,1.0000
   407,'1 ',     0.000,     0.000,     6.000,    -4.100,1.02756,     0,    13.800, 0.00000E+0, 2.30000E-1, 0.00000E+0, 0.00000E+0,1.00000,0,  100.0,    12.400,     0.000,  17,1.0000
   408,'1 ',    24.175,     4.650,    15.400,   -10.500,1.02671,     0,    35.300, 0.00000E+0, 1.80000E-1, 0.00000E+0, 0.00000E+0,1.00000,1,  100.0,    31.800,     0.000,  17,1.0000
   414,'1 ',     0.000,     0.000,    10.000,    -6.800,1.02000,     0,    22.800, 0.00000E+0, 2.40000E-1, 0.00000E+0, 0.00000E+0,1.00000,0,  100.0,    20.600,     0.000,  17,1.0000
   422,'1A',   287.670,    36.352,   208.000,  -110.000,1.03000,     0,   477.000, 5.07000E-3, 3.00000E-1, 0.00000E+0, 0.00000E+0,1.00000,1,  100.0,   415.000,   164.000,  17,1.0000
   424,'2A',   199.000,    31.353,   208.000,  -110.000,1.03000,     0,   477.000, 5.07000E-3, 3.00000E-1, 0.00000E+0, 0.00000E+0,1.00000,1,  100.0,   415.000,   199.000,  17,1.0000
   450,'1 ',     0.000,     0.000,     2.400,    -1.600,1.04788,     0,     7.000, 0.00000E+0, 2.00000E-1, 0.00000E+0, 0.00000E+0,1.00000,0,  100.0,     6.300,     0.000,  17,1.0000
   479,'1 ',     5.000,     8.244,     8.700,    -5.900,1.04761,     0,    20.000, 2.00000E-3, 2.50000E-1, 0.00000E+0, 0.00000E+0,1.00000,0,  100.0,    18.000,    -1.000,  17,1.0000
   490,'3 ',   507.231,   197.722,   255.400,  -173.300,1.04000,     0,   586.000, 1.89000E-3, 2.77000E-1, 0.00000E+0, 0.00000E+0,1.00000,1,  100.0,   527.400,   142.000,   5,1.0000
   491,'1 ',   421.921,   120.853,   138.400,   -34.400,1.04000,     0,   482.400, 1.89000E-3, 2.50000E-1, 0.00000E+0, 0.00000E+0,1.00000,1,  100.0,   422.000,   123.600,   5,1.0000
   492,'2A',   421.999,   106.140,   208.000,  -112.000,1.04000,     0,   482.400, 1.85000E-3, 2.50000E-1, 0.00000E+0, 0.00000E+0,1.00000,1,  100.0,   422.000,   200.000,   5,1.0000
   680,'1 ',    56.300,     8.278,    27.200,   -18.500,1.02000,     0,    62.500, 0.00000E+0, 2.10000E-1, 0.00000E+0, 0.00000E+0,1.00000,1,  100.0,    56.300,     0.000,  17,1.0000
   680,'10',    31.900,     4.690,    15.400,   -10.500,1.02000,     0,    35.400, 0.00000E+0, 2.20000E-1, 0.00000E+0, 0.00000E+0,1.00000,1,  100.0,    31.900,    12.000,  17,1.0000
   680,'11',    31.900,     4.690,    15.400,   -10.500,1.02000,     0,    35.400, 0.00000E+0, 2.20000E-1, 0.00000E+0, 0.00000E+0,1.00000,1,  100.0,    31.900,    12.000,  17,1.0000
   680,'12',    30.490,     4.483,    18.600,   -12.600,1.02000,     0,    42.600, 0.00000E+0, 1.60000E-1, 0.00000E+0, 0.00000E+0,1.00000,1,  100.0,    38.300,     4.000,  17,1.0000
   680,'14',    17.000,    15.118,    27.700,   -12.600,1.02000,     0,    67.500, 1.40000E-3, 1.90000E-1, 0.00000E+0, 0.00000E+0,1.00000,0,  100.0,    45.000,    17.000,  17,1.0000
   680,'15',    17.000,    15.118,    22.000,   -14.100,1.02000,     0,    71.200, 5.30000E-3, 1.44000E-1, 0.00000E+0, 0.00000E+0,1.00000,0,  100.0,    43.000,    17.000,  17,1.0000
   680,'3 ',     4.800,     4.269,    18.500,   -12.600,1.02000,     0,    42.600, 0.00000E+0, 1.60000E-1, 0.00000E+0, 0.00000E+0,1.00000,0,  100.0,    38.300,     4.000,  17,1.0000
   680,'9 ',     0.000,     0.000,    19.600,   -13.300,1.02000,     0,    44.900, 0.00000E+0, 2.60000E-1, 0.00000E+0, 0.00000E+0,1.00000,0,  100.0,    40.400,     0.000,  17,1.0000
  1031,'1 ',     0.000,     0.000,    13.900,    -9.500,1.02000,     0,    32.000, 3.50000E-3, 7.00000E-2, 0.00000E+0, 0.00000E+0,1.00000,0,  100.0,    28.800,     4.000,   1,1.0000
  1032,'2 ',    14.166,    -9.744,    25.000,   -18.000,1.02000,     0,    49.000, 7.20000E-3, 1.45000E-1, 0.00000E+0, 0.00000E+0,1.00000,1,  100.0,    44.100,     4.000,   1,1.0000
  1033,'3 ',     0.000,     0.000,     9.500,    -6.400,1.02000,     0,    21.700, 4.50000E-3, 9.00000E-2, 0.00000E+0, 0.00000E+0,1.00000,0,  100.0,    19.500,     3.000,   1,1.0000
  1035,'4 ',    38.065,   -17.300,    25.500,   -17.300,1.02000,     0,    58.600, 1.40000E-3, 1.62000E-1, 0.00000E+0, 0.00000E+0,1.00000,1,  100.0,    52.700,     9.000,  21,1.0000
  1037,'5 ',     8.853,    -3.036,    25.500,   -17.300,1.02000,     0,    60.000, 1.40000E-3, 1.98000E-1, 0.00000E+0, 0.00000E+0,1.00000,1,  100.0,    52.700,     2.000,  21,1.0000
  1087,'2 ',     5.000,    -6.485,    13.400,    -9.200,1.00000,     0,    29.500, 6.00000E-3, 1.40000E-1, 0.00000E+0, 0.00000E+0,1.00000,0,  100.0,    25.100,     5.000,  33,1.0000
  1089,'1A',    35.617,   -13.900,    20.500,   -13.900,1.00000,     0,    47.100, 9.30000E-3, 1.88000E-1, 0.00000E+0, 0.00000E+0,1.00000,1,  100.0,    40.000,     2.270,  33,1.0000
  1101,'2 ',     7.620,    -9.500,    13.900,    -9.500,1.05000,     0,    32.000, 3.10000E-3, 1.98000E-1, 0.00000E+0, 0.00000E+0,1.00000,1,  100.0,    28.800,     0.000,  30,1.0000
  1146,'1A',    13.844,   -16.200,    30.000,   -16.200,1.01000,     0,    57.900, 0.00000E+0, 1.55000E-1, 0.00000E+0, 0.00000E+0,1.00000,1,  100.0,    49.200,    10.000,  39,1.0000
  1148,'1 ',   139.713,   -28.836,    72.600,   -49.300,1.02600,     0,   167.000, 3.00000E-3, 1.85000E-1, 0.00000E+0, 0.00000E+0,1.00000,1,  100.0,   151.100,     0.000,   1,1.0000
  1167,'1 ',     0.000,     0.000,     5.400,    -3.700,1.03000,     0,    12.500, 4.50000E-3, 1.68000E-1, 0.00000E+0, 0.00000E+0,1.00000,0,  100.0,    11.300,     0.750,   1,1.0000
  1168,'2 ',     0.000,     0.000,     4.100,    -3.700,1.00000,     0,     9.400, 5.00000E-3, 1.68000E-1, 0.00000E+0, 0.00000E+0,1.00000,0,  100.0,     8.400,     0.750,   1,1.0000
  1171,'1 ',     9.000,   -17.300,    25.500,   -17.300,1.02000,     0,    60.000, 1.40000E-3, 1.98000E-1, 0.00000E+0, 0.00000E+0,1.00000,1,  100.0,    52.700,     9.000,   1,1.0000
  1173,'2 ',     2.000,   -17.300,    25.500,   -17.300,1.00000,     0,    72.000, 5.00000E-4, 1.60000E-1, 0.00000E+0, 0.00000E+0,1.00000,1,  100.0,    52.700,     2.000,   1,1.0000
  1205,'1 ',   100.000,    25.172,    44.800,   -30.400,1.10500,     0,   102.800, 4.00000E-3, 2.30000E-1, 0.00000E+0, 0.00000E+0,1.00000,1,  100.0,   100.000,    16.450,   9,1.0000
  1205,'11',    22.000,     5.538,    27.000,   -13.000,1.10500,     0,    33.800, 4.50000E-3, 1.47000E-1, 0.00000E+0, 0.00000E+0,1.00000,1,  100.0,    22.000,     2.000,   9,1.0000
  1205,'12',    86.000,    21.648,    39.700,   -30.000,1.10500,     0,    93.800, 3.40000E-3, 1.36000E-1, 0.00000E+0, 0.00000E+0,1.00000,1,  100.0,    86.000,    23.000,   9,1.0000
  1205,'15',     0.000,     0.000,     0.000,     0.000,1.10500,     0,    10.000, 0.00000E+0, 2.75000E-1, 0.00000E+0, 0.00000E+0,1.00000,0,  100.0,     0.000,    -8.000,   9,1.0000
  1205,'16',     0.000,     0.000,     0.000,     0.000,1.10500,     0,    10.000, 0.00000E+0, 2.75000E-1, 0.00000E+0, 0.00000E+0,1.00000,0,  100.0,     0.000,   -10.000,   9,1.0000
...